Hugging Face 주간 인기 논문 Top 10 (2026-W19) - 번역본
출처: https://huggingface.co/papers/week/2026-W19

--- 1. MolmoAct2: Action Reasoning Models for Real-world Deployment ---
Link: https://huggingface.co/papers/2605.02881

## Abstract (Original)
Vision-Language-Action (VLA) models aim to provide a single generalist controller for robots, but today's systems fall short on the criteria that matter for real-world deployment. Frontier models are closed, open-weight alternatives are tied to expensive hardware, reasoning-augmented policies pay prohibitive latency for their grounding, and fine-tuned success rates remain below the threshold for dependable use. We present MolmoAct2, a fully open action reasoning model built for practical deployment, advancing its predecessor along five axes. We introduce MolmoER, a VLM backbone specialized for spatial and embodied reasoning, trained on a 3.3M-sample corpus with a specialize-then-rehearse recipe. We release three new datasets spanning low-to-medium cost platforms, including MolmoAct2-BimanualYAM, 720 hours of teleoperated bimanual trajectories that constitute the largest open bimanual dataset to date, together with quality-filtered Franka (DROID) and SO100/101 subsets. We provide OpenFAST, an open-weight, open-data action tokenizer trained on millions of trajectories across five embodiments. We redesign the architecture to graft a flow-matching continuous-action expert onto a discrete-token VLM via per-layer KV-cache conditioning. Finally, we propose MolmoThink, an adaptive-depth reasoning variant that re-predicts depth tokens only for scene regions that change between timesteps, retaining geometric grounding at a fraction of prior latency. In the most extensive empirical study of any open VLA to date, spanning 7 simulation and real-world benchmarks, MolmoAct2 outperforms strong baselines including Pi-05, while MolmoER surpasses GPT-5 and Gemini Robotics ER-1.5 across 13 embodied-reasoning benchmarks. We release model weights, training code, and complete training data. Project page: https://allenai.org/blog/molmoact2

## 초록 (Korean)
번역 중 오류 발생: 3번의 시도 후에도 네트워크 연결에 실패했습니다.

--- 2. From Context to Skills: Can Language Models Learn from Context Skillfully? ---
Link: https://huggingface.co/papers/2604.27660

## Abstract (Original)
Many real-world tasks require language models (LMs) to reason over complex contexts that exceed their parametric knowledge. This calls for context learning, where LMs directly learn relevant knowledge from the given context. An intuitive solution is inference-time skill augmentation: extracting the rules and procedures from context into natural-language skills. However, constructing such skills for context learning scenarios faces two challenges: the prohibitive cost of manual skill annotation for long, technically dense contexts, and the lack of external feedback for automated skill construction. In this paper, we propose Ctx2Skill, a self-evolving framework that autonomously discovers, refines, and selects context-specific skills without human supervision or external feedback. At its core, a multi-agent self-play loop has a Challenger that generates probing tasks and rubrics, a Reasoner that attempts to solve them guided by an evolving skill set, and a neutral Judge that provides binary feedback. Crucially, both the Challenger and the Reasoner evolve through accumulated skills: dedicated Proposer and Generator agents analyze failure cases and synthesize them into targeted skill updates for both sides, enabling automated skill discovery and refinement. To prevent adversarial collapse caused by increasingly extreme task generation and over-specialized skill accumulation, we further introduce a Cross-time Replay mechanism that identifies the skill set achieving the best balance across representative cases for the Reasoner side, ensuring robust and generalizable skill evolution. The resulting skills can be plugged into any language model to obtain better context learning capability. Evaluated on four context learning tasks from CL-bench, Ctx2Skill consistently improves solving rates across backbone models.

## 초록 (Korean)
번역 중 오류 발생: 3번의 시도 후에도 네트워크 연결에 실패했습니다.

--- 3. Stream-R1: Reliability-Perplexity Aware Reward Distillation for Streaming Video Generation ---
Link: https://huggingface.co/papers/2605.03849

## Abstract (Original)
Distillation-based acceleration has become foundational for making autoregressive streaming video diffusion models practical, with distribution matching distillation (DMD) as the de facto choice. Existing methods, however, train the student to match the teacher's output indiscriminately, treating every rollout, frame, and pixel as equally reliable supervision. We argue that this caps distilled quality, since it overlooks two complementary axes of variance in DMD supervision: Inter-Reliability across student rollouts whose supervision varies in reliability, and Intra-Perplexity across spatial regions and temporal frames that contribute unequally to where quality can still be improved. The objective thus conflates two questions under a uniform weight: whether to learn from each rollout, and where to concentrate optimization within it. To address this, we propose Stream-R1, a Reliability-Perplexity Aware Reward Distillation framework that adaptively reweights the distillation objective at both rollout and spatiotemporal-element levels through a single shared reward-guided mechanism. At the Inter-Reliability level, Stream-R1 rescales each rollout's loss by an exponential of a pretrained video reward score, so that rollouts with reliable supervision dominate optimization. At the Intra-Perplexity level, it back-propagates the same reward model to extract per-pixel gradient saliency, which is factored into spatial and temporal weights that concentrate optimization pressure on regions and frames where refinement yields the largest expected gain. An adaptive balancing mechanism prevents any single quality axis from dominating across visual quality, motion quality, and text alignment. Stream-R1 attains consistent improvements on all three dimensions over distillation baselines on standard streaming video generation benchmarks, without architectural modification or additional inference cost.

## 초록 (Korean)
번역 중 오류 발생: 3번의 시도 후에도 네트워크 연결에 실패했습니다.

--- 4. RLDX-1 Technical Report ---
Link: https://huggingface.co/papers/2605.03269

## Abstract (Original)
While Vision-Language-Action models (VLAs) have shown remarkable progress toward human-like generalist robotic policies through the versatile intelligence (i.e. broad scene understanding and language-conditioned generalization) inherited from pre-trained Vision-Language Models, they still struggle with complex real-world tasks requiring broader functional capabilities (e.g. motion awareness, memory-aware decision making, and physical sensing). To address this, we introduce RLDX-1, a general-purpose robotic policy for dexterous manipulation built on the Multi-Stream Action Transformer (MSAT), an architecture that unifies these capabilities by integrating heterogeneous modalities through modality-specific streams with cross-modal joint self-attention. RLDX-1 further combines this architecture with system-level design choices, including synthesizing training data for rare manipulation scenarios, learning procedures specialized for human-like manipulation, and inference optimizations for real-time deployment. Through empirical evaluation, we show that RLDX-1 consistently outperforms recent frontier VLAs (e.g. π_{0.5} and GR00T N1.6) across both simulation benchmarks and real-world tasks that require broad functional capabilities beyond general versatility. In particular, RLDX-1 shows superiority in ALLEX humanoid tasks by achieving success rates of 86.8% while π_{0.5} and GR00T N1.6 achieve around 40%, highlighting the ability of RLDX-1 to control a high-DoF humanoid robot under diverse functional demands. Together, these results position RLDX-1 as a promising step toward reliable VLAs for complex, contact-rich, and dynamic real-world dexterous manipulation.

## 초록 (Korean)
번역 중 오류 발생: 3번의 시도 후에도 네트워크 연결에 실패했습니다.

--- 5. ARIS: Autonomous Research via Adversarial Multi-Agent Collaboration ---
Link: https://huggingface.co/papers/2605.03042

## Abstract (Original)
This report describes ARIS (Auto-Research-in-sleep), an open-source research harness for autonomous research, including its architecture, assurance mechanisms, and early deployment experience. The performance of agent systems built on LLMs depends on both the model weights and the harness around them, which governs what information to store, retrieve, and present to the model. For long-horizon research workflows, the central failure mode is not a visible breakdown but a plausible unsupported success: a long-running agent can produce claims whose evidential support is incomplete, misreported, or silently inherited from the executor's framing. Therefore, we present ARIS as a research harness that coordinates machine-learning research workflows through cross-model adversarial collaboration as a default configuration: an executor model drives forward progress while a reviewer from a different model family is recommended to critique intermediate artifacts and request revisions. ARIS has three architectural layers. The execution layer provides more than 65 reusable Markdown-defined skills, model integrations via MCP, a persistent research wiki for iterative reuse of prior findings, and deterministic figure generation. The orchestration layer coordinates five end-to-end workflows with adjustable effort settings and configurable routing to reviewer models. The assurance layer includes a three-stage process for checking whether experimental claims are supported by evidence: integrity verification, result-to-claim mapping, and claim auditing that cross-checks manuscript statements against the claim ledger and raw evidence, as well as a five-pass scientific-editing pipeline, mathematical-proof checks, and visual inspection of the rendered PDF. A prototype self-improvement loop records research traces and proposes harness improvements that are adopted only after reviewer approval.

## 초록 (Korean)
번역 중 오류 발생: 3번의 시도 후에도 네트워크 연결에 실패했습니다.

--- 6. Skill1: Unified Evolution of Skill-Augmented Agents via Reinforcement Learning ---
Link: https://huggingface.co/papers/2605.06130

## Abstract (Original)
A persistent skill library allows language model agents to reuse successful strategies across tasks. Maintaining such a library requires three coupled capabilities. The agent selects a relevant skill, utilizes it during execution, and distills new skills from experience. Existing methods optimize these capabilities in isolation or with separate reward sources, resulting in partial and conflicting evolution. We propose Skill1, a framework that trains a single policy to co-evolve skill selection, utilization, and distillation toward a shared task-outcome objective. The policy generates a query to search the skill library, re-ranks candidates to select one, solves the task conditioned on it, and distills a new skill from the trajectory. All learning derives from a single task-outcome signal. Its low-frequency trend credits selection and its high-frequency variation credits distillation. Experiments on ALFWorld and WebShop show that Skill1 outperforms prior skill-based and reinforcement learning baselines. Training dynamics confirm the co-evolution of the three capabilities, and ablations show that removing any credit signal degrades the evolution.

## 초록 (Korean)
번역 중 오류 발생: 3번의 시도 후에도 네트워크 연결에 실패했습니다.

--- 7. Beyond Semantic Similarity: Rethinking Retrieval for Agentic Search via Direct Corpus Interaction ---
Link: https://huggingface.co/papers/2605.05242

## Abstract (Original)
Modern retrieval systems, whether lexical or semantic, expose a corpus through a fixed similarity interface that compresses access into a single top-k retrieval step before reasoning. This abstraction is efficient, but for agentic search, it becomes a bottleneck: exact lexical constraints, sparse clue conjunctions, local context checks, and multi-step hypothesis refinement are difficult to implement by calling a conventional off-the-shelf retriever, and evidence filtered out early cannot be recovered by stronger downstream reasoning. Agentic tasks further exacerbate this limitation because they require agents to orchestrate multiple steps, including discovering intermediate entities, combining weak clues, and revising the plan after observing partial evidence. To tackle the limitation, we study direct corpus interaction (DCI), where an agent searches the raw corpus directly with general-purpose terminal tools (e.g., grep, file reads, shell commands, lightweight scripts), without any embedding model, vector index, or retrieval API. This approach requires no offline indexing and adapts naturally to evolving local corpora. Across IR benchmarks and end-to-end agentic search tasks, this simple setup substantially outperforms strong sparse, dense, and reranking baselines on several BRIGHT and BEIR datasets, and attains strong accuracy on BrowseComp-Plus and multi-hop QA without relying on any conventional semantic retriever. Our results indicate that as language agents become stronger, retrieval quality depends not only on reasoning ability but also on the resolution of the interface through which the model interacts with the corpus, with which DCI opens a broader interface-design space for agentic search.

## 초록 (Korean)
번역 중 오류 발생: 3번의 시도 후에도 네트워크 연결에 실패했습니다.

--- 8. Stream-T1: Test-Time Scaling for Streaming Video Generation ---
Link: https://huggingface.co/papers/2605.04461

## Abstract (Original)
While Test-Time Scaling (TTS) offers a promising direction to enhance video generation without the surging costs of training, current test-time video generation methods based on diffusion models suffer from exorbitant candidate exploration costs and lack temporal guidance. To address these structural bottlenecks, we propose shifting the focus to streaming video generation. We identify that its chunk-level synthesis and few denoising steps are intrinsically suited for TTS, significantly lowering computational overhead while enabling fine-grained temporal control. Driven by this insight, we introduced Stream-T1, a pioneering comprehensive TTS framework exclusively tailored for streaming video generation. Specifically, Stream-T1 is composed of three units: (1) Stream -Scaled Noise Propagation, which actively refines the initial latent noise of the generating chunk using historically proven, high-quality previous chunk noise, effectively establishes temporal dependency and utilizing the historical Gaussian prior to guide the current generation; (2) Stream -Scaled Reward Pruning, which comprehensively evaluates generated candidates to strike an optimal balance between local spatial aesthetics and global temporal coherence by integrating immediate short-term assessments with sliding-window-based long-term evaluations; (3) Stream-Scaled Memory Sinking, which dynamically routes the context evicted from KV-cache into distinct updating pathways guided by the reward feedback, ensuring that previously generated visual information effectively anchors and guides the subsequent video stream. Evaluated on both 5s and 30s comprehensive video benchmarks, Stream-T1 demonstrates profound superiority, significantly improving temporal consistency, motion smoothness, and frame-level visual quality.

## 초록 (Korean)
번역 중 오류 발생: 3번의 시도 후에도 네트워크 연결에 실패했습니다.

--- 9. OpenSearch-VL: An Open Recipe for Frontier Multimodal Search Agents ---
Link: https://huggingface.co/papers/2605.05185

## Abstract (Original)
Deep search has become a crucial capability for frontier multimodal agents, enabling models to solve complex questions through active search, evidence verification, and multi-step reasoning. Despite rapid progress, top-tier multimodal search agents remain difficult to reproduce, largely due to the absence of open high-quality training data, transparent trajectory synthesis pipelines, or detailed training recipes. To this end, we introduce OpenSearch-VL, a fully open-source recipe for training frontier multimodal deep search agents with agentic reinforcement learning. First, we curated a dedicated pipeline to construct high-quality training data through Wikipedia path sampling, fuzzy entity rewriting, and source-anchor visual grounding, which jointly reduce shortcuts and one-step retrieval collapse. Based on this pipeline, we curate two training datasets, SearchVL-SFT-36k for SFT and SearchVL-RL-8k for RL. Besides, we design a diverse tool environment that unifies text search, image search, OCR, cropping, sharpening, super-resolution, and perspective correction, enabling agents to combine active perception with external knowledge acquisition. Finally, we propose a multi-turn fatal-aware GRPO training algorithm that handles cascading tool failures by masking post-failure tokens while preserving useful pre-failure reasoning through one-sided advantage clamping. Built on this recipe, OpenSearch-VL delivers substantial performance gains, with over 10-point average improvements across seven benchmarks, and achieves results comparable to proprietary commercial models on several tasks. We will release all data, code, and models to support open research on multimodal deep search agents.

## 초록 (Korean)
번역 중 오류 발생: 3번의 시도 후에도 네트워크 연결에 실패했습니다.

--- 10. UniVidX: A Unified Multimodal Framework for Versatile Video Generation via Diffusion Priors ---
Link: https://huggingface.co/papers/2605.00658

## Abstract (Original)
Recent progress has shown that video diffusion models (VDMs) can be repurposed for diverse multimodal graphics tasks. However, existing methods often train separate models for each problem setting, which fixes the input-output mapping and limits the modeling of correlations across modalities. We present UniVidX, a unified multimodal framework that leverages VDM priors for versatile video generation. UniVidX formulates pixel-aligned tasks as conditional generation in a shared multimodal space, adapts to modality-specific distributions while preserving the backbone's native priors, and promotes cross-modal consistency during synthesis. It is built on three key designs. Stochastic Condition Masking (SCM) randomly partitions modalities into clean conditions and noisy targets during training, enabling omni-directional conditional generation instead of fixed mappings. Decoupled Gated LoRA (DGL) introduces per-modality LoRAs that are activated when a modality serves as the generation target, preserving the strong priors of the VDM. Cross-Modal Self-Attention (CMSA) shares keys and values across modalities while keeping modality-specific queries, facilitating information exchange and inter-modal alignment. We instantiate UniVidX in two domains: UniVid-Intrinsic, for RGB videos and intrinsic maps including albedo, irradiance, and normal; and UniVid-Alpha, for blended RGB videos and their constituent RGBA layers. Experiments show that both models achieve performance competitive with state-of-the-art methods across distinct tasks and generalize robustly to in-the-wild scenarios, even when trained on fewer than 1,000 videos. Project page: https://houyuanchen111.github.io/UniVidX.github.io/

## 초록 (Korean)
번역 중 오류 발생: 3번의 시도 후에도 네트워크 연결에 실패했습니다.

